
OS:Version,
  {6ef54827-4ea6-46f8-870b-1a0b9eaea735}, !- Handle
  3.7.0;                                  !- Version Identifier

OS:Site,
  {e5043cbd-f28a-4093-8a3b-02e973409f53}, !- Handle
  Miami Intl Ap_FL_USA Design_Conditions, !- Name
  25.82,                                  !- Latitude {deg}
  -80.3,                                  !- Longitude {deg}
  -5,                                     !- Time Zone {hr}
  11,                                     !- Elevation {m}
  City;                                   !- Terrain

OS:SimulationControl,
  {dfe6b866-f781-46f3-9e7f-099163c06dda}, !- Handle
  Yes,                                    !- Do Zone Sizing Calculation
  Yes,                                    !- Do System Sizing Calculation
  Yes,                                    !- Do Plant Sizing Calculation
  No,                                     !- Run Simulation for Sizing Periods
  Yes,                                    !- Run Simulation for Weather File Run Periods
  0.04,                                   !- Loads Convergence Tolerance Value {W}
  0.2,                                    !- Temperature Convergence Tolerance Value {deltaC}
  FullInteriorAndExterior,                !- Solar Distribution
  25,                                     !- Maximum Number of Warmup Days
  6,                                      !- Minimum Number of Warmup Days
  No,                                     !- Do HVAC Sizing Simulation for Sizing Periods
  1;                                      !- Maximum Number of HVAC Sizing Simulation Passes

OS:Schedule:Compact,
  {efd7ed0a-dd38-41da-b616-a09da29b3fc0}, !- Handle
  PV_SCH,                                 !- Name
  {d7144417-21e7-48df-b093-f50979ef5f27}, !- Schedule Type Limits Name
  Through: 12/31,                         !- Field 1
  For: AllDays,                           !- Field 2
  Until: 24:00,                           !- Field 3
  1;                                      !- Field 4

OS:ScheduleTypeLimits,
  {d7144417-21e7-48df-b093-f50979ef5f27}, !- Handle
  Fraction,                               !- Name
  0,                                      !- Lower Limit Value
  1,                                      !- Upper Limit Value
  CONTINUOUS;                             !- Numeric Type

OS:Building,
  {e8b3a839-60c2-496b-ba29-d7c41e60a79d}, !- Handle
  OfficeSmall,                            !- Name
  ,                                       !- Building Sector Type
  0,                                      !- North Axis {deg}
  ,                                       !- Nominal Floor to Floor Height {m}
  ,                                       !- Space Type Name
  ,                                       !- Default Construction Set Name
  ;                                       !- Default Schedule Set Name

OS:ShadowCalculation,
  {015c2ae5-f4ba-4b4f-b8ba-0f5bc4eecca2}, !- Handle
  PolygonClipping,                        !- Shading Calculation Method
  Periodic,                               !- Shading Calculation Update Frequency Method
  30,                                     !- Shading Calculation Update Frequency
  15000,                                  !- Maximum Figures in Shadow Overlap Calculations
  ,                                       !- Polygon Clipping Algorithm
  512,                                    !- Pixel Counting Resolution
  ,                                       !- Sky Diffuse Modeling Algorithm
  No,                                     !- Output External Shading Calculation Results
  No,                                     !- Disable Self-Shading Within Shading Zone Groups
  No;                                     !- Disable Self-Shading From Shading Zone Groups to Other Zones

OS:HeatBalanceAlgorithm,
  {8131a46b-4cd2-4565-95d8-d5d80ae63b9c}, !- Handle
  ConductionTransferFunction,             !- Algorithm
  200;                                    !- Surface Temperature Upper Limit {C}

OS:Timestep,
  {b12197e6-0df4-4506-81a6-de65b73d943a}, !- Handle
  6;                                      !- Number of Timesteps per Hour

OS:ConvergenceLimits,
  {c9a019c5-4356-46f1-8edc-5b8b29dad0ef}, !- Handle
  1,                                      !- Minimum System Timestep {minutes}
  20;                                     !- Maximum HVAC Iterations

OS:RunPeriod,
  {f6adcfc5-9e81-4f43-8359-05426c081233}, !- Handle
  RUNPERIOD 1,                            !- Name
  1,                                      !- Begin Month
  1,                                      !- Begin Day of Month
  12,                                     !- End Month
  31,                                     !- End Day of Month
  No,                                     !- Use Weather File Holidays and Special Days
  No,                                     !- Use Weather File Daylight Saving Period
  No,                                     !- Apply Weekend Holiday Rule
  Yes,                                    !- Use Weather File Rain Indicators
  Yes,                                    !- Use Weather File Snow Indicators
  ;                                       !- Number of Times Runperiod to be Repeated

OS:YearDescription,
  {fcd4b680-8537-45fb-b347-8ab923cf9913}, !- Handle
  ,                                       !- Calendar Year
  Sunday;                                 !- Day of Week for Start Day

OS:RunPeriodControl:SpecialDays,
  {157004dd-7335-40d7-a282-fe11e727e2db}, !- Handle
  New Years Day,                          !- Name
  January 1,                              !- Start Date
  1,                                      !- Duration {days}
  Holiday;                                !- Special Day Type

OS:RunPeriodControl:SpecialDays,
  {350db02b-9a1a-4a5b-8b1f-78ce3a51c806}, !- Handle
  Veterans Day,                           !- Name
  November 11,                            !- Start Date
  1,                                      !- Duration {days}
  Holiday;                                !- Special Day Type

OS:RunPeriodControl:SpecialDays,
  {cb3506a0-c9e0-48ef-81c5-f3b7b71cd4cf}, !- Handle
  Christmas,                              !- Name
  December 25,                            !- Start Date
  1,                                      !- Duration {days}
  Holiday;                                !- Special Day Type

OS:RunPeriodControl:SpecialDays,
  {fe57fccf-87a5-4399-9161-79164085db1b}, !- Handle
  Independence Day,                       !- Name
  July 4,                                 !- Start Date
  1,                                      !- Duration {days}
  Holiday;                                !- Special Day Type

OS:RunPeriodControl:SpecialDays,
  {5e97c9ec-4659-4392-96d3-35046f4f7feb}, !- Handle
  MLK Day,                                !- Name
  3rd Monday in January,                  !- Start Date
  1,                                      !- Duration {days}
  Holiday;                                !- Special Day Type

OS:RunPeriodControl:SpecialDays,
  {819e0cc9-ba10-4940-ae23-8cbff37d53b1}, !- Handle
  Presidents Day,                         !- Name
  3rd Monday in February,                 !- Start Date
  1,                                      !- Duration {days}
  Holiday;                                !- Special Day Type

OS:RunPeriodControl:SpecialDays,
  {d50e9abe-35ae-4744-9de4-7922ddc94a07}, !- Handle
  Memorial Day,                           !- Name
  Last Monday in May,                     !- Start Date
  1,                                      !- Duration {days}
  Holiday;                                !- Special Day Type

OS:RunPeriodControl:SpecialDays,
  {ba3c5c2f-4112-47b3-bb32-05dda4354c93}, !- Handle
  Labor Day,                              !- Name
  1st Monday in September,                !- Start Date
  1,                                      !- Duration {days}
  Holiday;                                !- Special Day Type

OS:RunPeriodControl:SpecialDays,
  {30eb68a8-89b7-4a7f-8ef2-208a870b8f79}, !- Handle
  Columbus Day,                           !- Name
  2nd Monday in October,                  !- Start Date
  1,                                      !- Duration {days}
  Holiday;                                !- Special Day Type

OS:RunPeriodControl:SpecialDays,
  {0ebf57b1-df72-4688-bf45-37e5d8bd958a}, !- Handle
  Thanksgiving,                           !- Name
  4th Thursday in November,               !- Start Date
  1,                                      !- Duration {days}
  Holiday;                                !- Special Day Type

OS:RunPeriodControl:DaylightSavingTime,
  {5ee64378-3166-4fb9-8cfd-09e91935ceef}, !- Handle
  2nd Sunday in March,                    !- Start Date
  1st Sunday in November;                 !- End Date

OS:SizingPeriod:DesignDay,
  {05fbd103-dc40-4b7e-92a5-985983711591}, !- Handle
  Miami Intl Ap Ann Htg 99.6% Condns DB,  !- Name
  8.7,                                    !- Maximum Dry-Bulb Temperature {C}
  0,                                      !- Daily Dry-Bulb Temperature Range {deltaC}
  101193,                                 !- Barometric Pressure {Pa}
  3.8,                                    !- Wind Speed {m/s}
  340,                                    !- Wind Direction {deg}
  0,                                      !- Sky Clearness
  No,                                     !- Rain Indicator
  No,                                     !- Snow Indicator
  21,                                     !- Day of Month
  1,                                      !- Month
  WinterDesignDay,                        !- Day Type
  No,                                     !- Daylight Saving Time Indicator
  Wetbulb,                                !- Humidity Condition Type
  ,                                       !- Humidity Condition Day Schedule Name
  8.7,                                    !- Wetbulb or DewPoint at Maximum Dry-Bulb {C}
  ,                                       !- Humidity Ratio at Maximum Dry-Bulb {kgWater/kgDryAir}
  ,                                       !- Enthalpy at Maximum Dry-Bulb {J/kg}
  DefaultMultipliers,                     !- Dry-Bulb Temperature Range Modifier Type
  ,                                       !- Dry-Bulb Temperature Range Modifier Day Schedule Name
  ASHRAEClearSky;                         !- Solar Model Indicator

OS:SizingPeriod:DesignDay,
  {d1c3106e-0a7e-4ad8-aff6-5c13044277d7}, !- Handle
  Miami Intl Ap Ann Clg .4% Condns DB=>MWB, !- Name
  33.2,                                   !- Maximum Dry-Bulb Temperature {C}
  6.7,                                    !- Daily Dry-Bulb Temperature Range {deltaC}
  101193,                                 !- Barometric Pressure {Pa}
  4.5,                                    !- Wind Speed {m/s}
  140,                                    !- Wind Direction {deg}
  ,                                       !- Sky Clearness
  No,                                     !- Rain Indicator
  No,                                     !- Snow Indicator
  21,                                     !- Day of Month
  7,                                      !- Month
  SummerDesignDay,                        !- Day Type
  No,                                     !- Daylight Saving Time Indicator
  Wetbulb,                                !- Humidity Condition Type
  ,                                       !- Humidity Condition Day Schedule Name
  25.3,                                   !- Wetbulb or DewPoint at Maximum Dry-Bulb {C}
  ,                                       !- Humidity Ratio at Maximum Dry-Bulb {kgWater/kgDryAir}
  ,                                       !- Enthalpy at Maximum Dry-Bulb {J/kg}
  DefaultMultipliers,                     !- Dry-Bulb Temperature Range Modifier Type
  ,                                       !- Dry-Bulb Temperature Range Modifier Day Schedule Name
  ASHRAETau,                              !- Solar Model Indicator
  ,                                       !- Beam Solar Day Schedule Name
  ,                                       !- Diffuse Solar Day Schedule Name
  0.528,                                  !- ASHRAE Clear Sky Optical Depth for Beam Irradiance {dimensionless}
  1.905;                                  !- ASHRAE Clear Sky Optical Depth for Diffuse Irradiance {dimensionless}

OS:Material:NoMass,
  {b4f983ac-1f72-428f-a74e-db51d715b77d}, !- Handle
  Opaque Door panel_con,                  !- Name
  MediumRough,                            !- Roughness
  0.475973498005059,                      !- Thermal Resistance {m2-K/W}
  0.9,                                    !- Thermal Absorptance
  0.7,                                    !- Solar Absorptance
  0.7;                                    !- Visible Absorptance

OS:Construction,
  {0affe854-9190-4c8c-8d33-8088c5af2563}, !- Handle
  Swinging Door_con,                      !- Name
  ,                                       !- Surface Rendering Name
  {b4f983ac-1f72-428f-a74e-db51d715b77d}; !- Layer 1

OS:ScheduleTypeLimits,
  {c90c3f09-9c51-4a70-bf87-082382a65fbb}, !- Handle
  Schedule Type Limits 1;                 !- Name

OS:ScheduleTypeLimits,
  {5dc32298-85f4-4797-b4bb-a738f8c905d9}, !- Handle
  Temperature,                            !- Name
  -60,                                    !- Lower Limit Value
  200,                                    !- Upper Limit Value
  CONTINUOUS,                             !- Numeric Type
  Temperature;                            !- Unit Type

OS:ScheduleTypeLimits,
  {35d630ba-55c6-41ba-87d2-847a01405359}, !- Handle
  On/Off,                                 !- Name
  0,                                      !- Lower Limit Value
  1,                                      !- Upper Limit Value
  DISCRETE,                               !- Numeric Type
  Availability;                           !- Unit Type

OS:ScheduleTypeLimits,
  {2fece316-8c36-4e34-97d9-5101c3826df4}, !- Handle
  Control Type,                           !- Name
  0,                                      !- Lower Limit Value
  4,                                      !- Upper Limit Value
  DISCRETE,                               !- Numeric Type
  ControlMode;                            !- Unit Type

OS:ScheduleTypeLimits,
  {9102f28a-e70a-4e1a-a3aa-8c9d0d017157}, !- Handle
  Humidity,                               !- Name
  10,                                     !- Lower Limit Value
  90,                                     !- Upper Limit Value
  CONTINUOUS;                             !- Numeric Type

OS:ScheduleTypeLimits,
  {92f2e160-6862-43e9-9822-2f6da88c42f6}, !- Handle
  Schedule Type Limits 2;                 !- Name

OS:Schedule:Compact,
  {f137eac3-c07c-40d4-8ed7-b465f0a27e3e}, !- Handle
  ltg_sch_office,                         !- Name
  {d7144417-21e7-48df-b093-f50979ef5f27}, !- Schedule Type Limits Name
  Through: 12/31,                         !- Field 1
  For: SummerDesignDay,                   !- Field 2
  Until: 24:00,                           !- Field 3
  1,                                      !- Field 4
  For: WinterDesignDay,                   !- Field 5
  Until: 24:00,                           !- Field 6
  0,                                      !- Field 7
  For: Weekdays,                          !- Field 8
  Until: 5:00,                            !- Field 9
  0.120934906,                            !- Field 10
  Until: 7:00,                            !- Field 11
  0.1545268315,                           !- Field 12
  Until: 8:00,                            !- Field 13
  0.2821781355,                           !- Field 14
  Until: 12:00,                           !- Field 15
  0.6046645945,                           !- Field 16
  Until: 13:00,                           !- Field 17
  0.5374807435,                           !- Field 18
  Until: 17:00,                           !- Field 19
  0.6046645945,                           !- Field 20
  Until: 18:00,                           !- Field 21
  0.4098294395,                           !- Field 22
  Until: 20:00,                           !- Field 23
  0.2821781355,                           !- Field 24
  Until: 22:00,                           !- Field 25
  0.2149942845,                           !- Field 26
  Until: 23:00,                           !- Field 27
  0.1545268315,                           !- Field 28
  Until: 24:00,                           !- Field 29
  0.120934906,                            !- Field 30
  For: Saturday,                          !- Field 31
  Until: 24:00,                           !- Field 32
  0.120934906,                            !- Field 33
  For: AllOtherDays,                      !- Field 34
  Until: 24:00,                           !- Field 35
  0.120934906;                            !- Field 36

OS:Schedule:Compact,
  {872a8714-2d7c-4bdf-9a54-8b0b715ae76a}, !- Handle
  BLDG_EQUIP_SCH,                         !- Name
  {d7144417-21e7-48df-b093-f50979ef5f27}, !- Schedule Type Limits Name
  Through: 12/31,                         !- Field 1
  For: WeekDays,                          !- Field 2
  Until: 6:00,                            !- Field 3
  0.4094775565,                           !- Field 4
  Until: 8:00,                            !- Field 5
  0.4797526335,                           !- Field 6
  Until: 12:00,                           !- Field 7
  0.959505267,                            !- Field 8
  Until: 13:00,                           !- Field 9
  0.90193495098,                          !- Field 10
  Until: 17:00,                           !- Field 11
  0.959505267,                            !- Field 12
  Until: 18:00,                           !- Field 13
  0.4797526335,                           !- Field 14
  Until: 23:00,                           !- Field 15
  0.1919010534,                           !- Field 16
  Until: 24:00,                           !- Field 17
  0.1637910226,                           !- Field 18
  For: Weekends,                          !- Field 19
  Until: 24:00,                           !- Field 20
  0.1637910226,                           !- Field 21
  For: Holiday,                           !- Field 22
  Until: 24:00,                           !- Field 23
  0.1637910226,                           !- Field 24
  For: WinterDesignDay,                   !- Field 25
  Until: 24:00,                           !- Field 26
  0.0,                                    !- Field 27
  For: SummerDesignDay,                   !- Field 28
  Until: 24:00,                           !- Field 29
  1.0,                                    !- Field 30
  For: CustomDay1,                        !- Field 31
  Until: 24:00,                           !- Field 32
  0.0,                                    !- Field 33
  For: CustomDay2,                        !- Field 34
  Until: 24:00,                           !- Field 35
  0.0;                                    !- Field 36

OS:Schedule:Compact,
  {de9f3c90-d6b5-44fd-ab9f-1d87af0ce827}, !- Handle
  BLDG_OCC_SCH,                           !- Name
  {d7144417-21e7-48df-b093-f50979ef5f27}, !- Schedule Type Limits Name
  Through: 12/31,                         !- Field 1
  For: Weekdays,                          !- Field 2
  Until: 6:00,                            !- Field 3
  0.0,                                    !- Field 4
  Until: 7:00,                            !- Field 5
  0.11,                                   !- Field 6
  Until: 8:00,                            !- Field 7
  0.21,                                   !- Field 8
  Until: 12:00,                           !- Field 9
  1.0,                                    !- Field 10
  Until: 13:00,                           !- Field 11
  0.53,                                   !- Field 12
  Until: 17:00,                           !- Field 13
  1.0,                                    !- Field 14
  Until: 18:00,                           !- Field 15
  0.32,                                   !- Field 16
  Until: 22:00,                           !- Field 17
  0.11,                                   !- Field 18
  Until: 23:00,                           !- Field 19
  0.05,                                   !- Field 20
  Until: 24:00,                           !- Field 21
  0.0,                                    !- Field 22
  For: Weekends,                          !- Field 23
  Until: 24:00,                           !- Field 24
  0.0,                                    !- Field 25
  For: Holiday,                           !- Field 26
  Until: 24:00,                           !- Field 27
  0.0,                                    !- Field 28
  For: WinterDesignDay,                   !- Field 29
  Until: 24:00,                           !- Field 30
  0.0,                                    !- Field 31
  For: SummerDesignDay,                   !- Field 32
  Until: 24:00,                           !- Field 33
  1.0,                                    !- Field 34
  For: CustomDay1,                        !- Field 35
  Until: 24:00,                           !- Field 36
  0.0,                                    !- Field 37
  For: CustomDay2,                        !- Field 38
  Until: 24:00,                           !- Field 39
  0.0;                                    !- Field 40

OS:Schedule:Compact,
  {c09ed5b0-261b-4221-b473-4918613e1565}, !- Handle
  BLDG_OCC_SCH_w_SB,                      !- Name
  {d7144417-21e7-48df-b093-f50979ef5f27}, !- Schedule Type Limits Name
  Through: 12/31,                         !- Field 1
  For: Weekdays,                          !- Field 2
  Until: 01:00,                           !- Field 3
  0,                                      !- Field 4
  Until: 02:00,                           !- Field 5
  0,                                      !- Field 6
  Until: 03:00,                           !- Field 7
  0,                                      !- Field 8
  Until: 04:00,                           !- Field 9
  0,                                      !- Field 10
  Until: 05:00,                           !- Field 11
  0,                                      !- Field 12
  Until: 06:00,                           !- Field 13
  0,                                      !- Field 14
  Until: 07:00,                           !- Field 15
  0.11,                                   !- Field 16
  Until: 08:00,                           !- Field 17
  0.21,                                   !- Field 18
  Until: 09:00,                           !- Field 19
  1,                                      !- Field 20
  Until: 10:00,                           !- Field 21
  1,                                      !- Field 22
  Until: 11:00,                           !- Field 23
  0,                                      !- Field 24
  Until: 12:00,                           !- Field 25
  1,                                      !- Field 26
  Until: 13:00,                           !- Field 27
  0,                                      !- Field 28
  Until: 14:00,                           !- Field 29
  1,                                      !- Field 30
  Until: 15:00,                           !- Field 31
  0,                                      !- Field 32
  Until: 16:00,                           !- Field 33
  1,                                      !- Field 34
  Until: 17:00,                           !- Field 35
  1,                                      !- Field 36
  Until: 18:00,                           !- Field 37
  0.32,                                   !- Field 38
  Until: 19:00,                           !- Field 39
  0.11,                                   !- Field 40
  Until: 20:00,                           !- Field 41
  0.11,                                   !- Field 42
  Until: 21:00,                           !- Field 43
  0.11,                                   !- Field 44
  Until: 22:00,                           !- Field 45
  0.11,                                   !- Field 46
  Until: 23:00,                           !- Field 47
  0.05,                                   !- Field 48
  Until: 24:00,                           !- Field 49
  0,                                      !- Field 50
  For: Weekends,                          !- Field 51
  Until: 01:00,                           !- Field 52
  0,                                      !- Field 53
  Until: 02:00,                           !- Field 54
  0,                                      !- Field 55
  Until: 03:00,                           !- Field 56
  0,                                      !- Field 57
  Until: 04:00,                           !- Field 58
  0,                                      !- Field 59
  Until: 05:00,                           !- Field 60
  0,                                      !- Field 61
  Until: 06:00,                           !- Field 62
  0,                                      !- Field 63
  Until: 07:00,                           !- Field 64
  0,                                      !- Field 65
  Until: 08:00,                           !- Field 66
  0,                                      !- Field 67
  Until: 09:00,                           !- Field 68
  0,                                      !- Field 69
  Until: 10:00,                           !- Field 70
  0,                                      !- Field 71
  Until: 11:00,                           !- Field 72
  0,                                      !- Field 73
  Until: 12:00,                           !- Field 74
  0,                                      !- Field 75
  Until: 13:00,                           !- Field 76
  0,                                      !- Field 77
  Until: 14:00,                           !- Field 78
  0,                                      !- Field 79
  Until: 15:00,                           !- Field 80
  0,                                      !- Field 81
  Until: 16:00,                           !- Field 82
  0,                                      !- Field 83
  Until: 17:00,                           !- Field 84
  0,                                      !- Field 85
  Until: 18:00,                           !- Field 86
  0,                                      !- Field 87
  Until: 19:00,                           !- Field 88
  0,                                      !- Field 89
  Until: 20:00,                           !- Field 90
  0,                                      !- Field 91
  Until: 21:00,                           !- Field 92
  0,                                      !- Field 93
  Until: 22:00,                           !- Field 94
  0,                                      !- Field 95
  Until: 23:00,                           !- Field 96
  0,                                      !- Field 97
  Until: 24:00,                           !- Field 98
  0,                                      !- Field 99
  For: Holiday,                           !- Field 100
  Until: 24:00,                           !- Field 101
  0.0,                                    !- Field 102
  For: WinterDesignDay,                   !- Field 103
  Until: 24:00,                           !- Field 104
  0.0,                                    !- Field 105
  For: SummerDesignDay,                   !- Field 106
  Until: 24:00,                           !- Field 107
  1.0,                                    !- Field 108
  For: CustomDay1,                        !- Field 109
  Until: 24:00,                           !- Field 110
  0.0,                                    !- Field 111
  For: CustomDay2,                        !- Field 112
  Until: 24:00,                           !- Field 113
  0.0;                                    !- Field 114

OS:Schedule:Compact,
  {f4fea186-5285-4cbd-925a-f7df1f833267}, !- Handle
  BLDG_OCC_SCH_wo_SB,                     !- Name
  {d7144417-21e7-48df-b093-f50979ef5f27}, !- Schedule Type Limits Name
  Through: 12/31,                         !- Field 1
  For: Weekdays,                          !- Field 2
  Until: 01:00,                           !- Field 3
  0,                                      !- Field 4
  Until: 02:00,                           !- Field 5
  0,                                      !- Field 6
  Until: 03:00,                           !- Field 7
  0,                                      !- Field 8
  Until: 04:00,                           !- Field 9
  0,                                      !- Field 10
  Until: 05:00,                           !- Field 11
  0,                                      !- Field 12
  Until: 06:00,                           !- Field 13
  0,                                      !- Field 14
  Until: 07:00,                           !- Field 15
  0.11,                                   !- Field 16
  Until: 08:00,                           !- Field 17
  0.21,                                   !- Field 18
  Until: 09:00,                           !- Field 19
  1,                                      !- Field 20
  Until: 10:00,                           !- Field 21
  1,                                      !- Field 22
  Until: 11:00,                           !- Field 23
  1,                                      !- Field 24
  Until: 12:00,                           !- Field 25
  1,                                      !- Field 26
  Until: 13:00,                           !- Field 27
  0.610394505402463,                      !- Field 28
  Until: 14:00,                           !- Field 29
  1,                                      !- Field 30
  Until: 15:00,                           !- Field 31
  1,                                      !- Field 32
  Until: 16:00,                           !- Field 33
  1,                                      !- Field 34
  Until: 17:00,                           !- Field 35
  1,                                      !- Field 36
  Until: 18:00,                           !- Field 37
  0.32,                                   !- Field 38
  Until: 19:00,                           !- Field 39
  0.11,                                   !- Field 40
  Until: 20:00,                           !- Field 41